Circuit: * E:\Dropbox\Dima\Teaching courses and tutorials\Plymouth City College\1081\Complex Signals\LTspice_for_complex_waveforms\Cos.asc

Direct Newton iteration for .op point succeeded.

Date: Thu Nov 23 22:36:15 2023
Total elapsed time: 0.292 seconds.

tnom = 27
temp = 27
method = modified trap
totiter = 10051
traniter = 10048
tranpoints = 5025
accept = 3227
rejected = 1798
matrix size = 56
fillins = 0
solver = Normal
Thread vector: 4.8/2.8[2] 1.3/12.4[1] 0.4/3.8[1] 0.2/45.4[1]  2592/500
Matrix Compiler1: 1.23 KB object code size  0.9/0.3/[0.2]
Matrix Compiler2: 3.05 KB object code size  0.5/0.9/[0.4]

