Circuit: * E:\Dropbox\Dima\Teaching courses and tutorials\Plymouth City College\1081\Complex Signals\LTspice_Triangle waveform\Triangle.asc

.OP point found by inspection.

Date: Wed Nov 22 12:57:23 2023
Total elapsed time: 0.484 seconds.

tnom = 27
temp = 27
method = modified trap
totiter = 2082
traniter = 2082
tranpoints = 1042
accept = 1042
rejected = 0
matrix size = 6
fillins = 0
solver = Normal
Matrix Compiler1: 146 bytes object code size  0.1/0.1/[0.0]
Matrix Compiler2: 334 bytes object code size  0.1/0.1/[0.0]

